82
center box
H	-5.189795 	-4.043357 	5.632879 
H	-4.119041 	4.612054 	7.866815 
H	6.076723 	-4.393315 	6.563110 
H	-3.742713 	0.659663 	5.505978 
H	1.939461 	3.103412 	7.343179 
H	-1.682798 	0.517414 	6.836966 
H	-0.032442 	-3.824617 	9.197693 
O	-4.347332 	-4.486827 	5.435631 
O	4.057901 	0.514128 	7.580344 
O	-3.273430 	4.934970 	7.464886 
O	5.507644 	-5.232734 	6.552932 
O	-4.613814 	0.534955 	6.031335 
O	1.827451 	2.390623 	6.662143 
O	6.069360 	4.115930 	5.529803 
O	-1.626575 	0.229237 	5.805214 
O	0.700983 	-3.544916 	8.582182 
Si	4.492253 	0.314281 	6.128324 
Si	-3.320124 	-3.511712 	4.639391 
Si	1.348719 	3.050863 	5.243774 
Si	-1.421532 	-1.378891 	5.599722 
Si	0.358252 	-3.127276 	7.077037 
Si	4.524415 	-5.215825 	5.289620 
Si	4.879471 	3.248360 	4.662315 
Si	-3.357419 	5.781407 	6.052107 
Si	-5.893035 	0.000180 	5.018043 
O	5.247283 	2.938840 	8.604858 
H	5.012496 	2.073395 	8.222264 
H	4.463251 	3.534516 	8.541803 
O	6.037697 	5.748031 	8.081586 
H	5.982572 	6.592652 	7.614090 
H	5.771820 	5.041264 	7.490152 
O	-1.422627 	2.835927 	10.229460 
H	-1.180398 	3.864907 	10.295971 
H	-1.970445 	2.525676 	11.082255 
O	1.542852 	0.175873 	8.636191 
H	2.141000 	0.608117 	7.969087 
H	0.683195 	0.258508 	8.102821 
O	-6.582457 	-2.314347 	9.455045 
H	-6.057755 	-1.584078 	9.808110 
H	5.931837 	-1.878696 	9.321798 
O	-3.458076 	-3.853262 	8.457332 
H	-2.994267 	-4.029412 	7.612032 
H	-4.211038 	-4.444894 	8.523655 
O	-1.089615 	-4.391297 	10.325744 
H	-2.028695 	-4.419344 	10.081518 
H	-1.242523 	-3.874051 	11.140843 
O	1.336042 	2.317117 	10.346123 
H	1.382023 	1.481355 	9.782378 
H	0.370587 	2.395455 	10.455056 
O	4.360741 	-1.134128 	9.455896 
H	3.611605 	-1.592693 	9.847063 
H	4.098689 	-0.654946 	8.635984 
O	2.607415 	4.088904 	8.563766 
H	2.406775 	3.576005 	9.327762 
H	2.459297 	5.019052 	8.828568 
O	1.619401 	6.589935 	9.030289 
H	1.549367 	-5.978030 	8.383588 
H	1.906972 	-6.315849 	9.908023 
O	-1.520038 	0.688200 	8.342367 
H	-1.589165 	1.704768 	8.658980 
H	-2.092118 	0.107929 	8.914977 
O	-5.450936 	3.245834 	7.955147 
H	-5.156772 	2.469981 	7.456633 
H	-6.466880 	3.304889 	7.995775 
O	-6.446412 	-2.975552 	6.685060 
H	-6.295979 	-2.516074 	7.546757 
H	6.657021 	-2.307089 	6.020283 
O	2.224386 	-5.472169 	11.388129 
H	1.263655 	-5.629382 	11.674330 
H	2.829074 	-5.602754 	12.211785 
O	-1.048143 	5.697228 	9.988004 
H	-0.138534 	5.891909 	9.579950 
H	-1.669751 	5.791343 	9.219809 
O	-3.627857 	-1.047942 	8.239605 
H	-3.908942 	-0.767927 	7.287972 
H	-3.525611 	-2.058302 	8.229736 
O	2.256335 	-2.723372 	10.621557 
H	1.726879 	-2.969578 	9.808694 
H	2.659586 	-3.547973 	11.016961 
O	-4.993654 	-6.223173 	9.069639 
H	-4.502164 	6.536280 	9.802439 
H	-5.646043 	6.357377 	8.765565 
